*SPEF "IEEE 1481-1998"
*DESIGN "wb_dma_top"
*DATE "Wed Feb  7 22:42:42 2024"
*VENDOR "ICCAD 2015 Contest"
*PROGRAM "ICCAD 2015 Contest Spef Generator"
*VERSION "0.0"
*DESIGN_FLOW ""
*DIVIDER /
*DELIMITER :
*BUS_DELIMITER [ ]
*T_UNIT 1 PS
*C_UNIT 1 PF
*R_UNIT 1 OHM
*L_UNIT 1 UH

*D_NET rst_i 0
*CONN
*P rst_i I
*CAP
*RES
*END

*D_NET wb0s_data_i[31] 0.001847
*CONN
*P wb0s_data_i[31] I
*I U2774:b I
*I U1776:b I
*CAP
1 wb0s_data_i[31] 0.00068822
2 U1776/b 0.00092351
3 U2774/b 0.00023529
*RES
1 wb0s_data_i[31] U1776/b 95.752
2 U2774/b U1776/b 32.736
*END

*D_NET wb0s_data_i[30] 0.0014044
*CONN
*P wb0s_data_i[30] I
*I U2773:b I
*I U1777:b I
*CAP
1 wb0s_data_i[30] 0.00038939
2 wb0s_data_i[30]:1 0.00070219
3 U1777/b 0.00010396
4 U2773/b 0.00020884
*RES
1 wb0s_data_i[30] wb0s_data_i[30]:1 54.176
2 U1777/b wb0s_data_i[30]:1 14.464
3 U2773/b wb0s_data_i[30]:1 29.056
*END

*D_NET wb0s_data_i[29] 0.0011357
*CONN
*P wb0s_data_i[29] I
*I U2772:b I
*I U2498:b I
*CAP
1 wb0s_data_i[29] 0.00039491
2 wb0s_data_i[29]:2 0.00056787
3 U2772/b 0.00015766
4 U2498/b 1.5295e-05
*RES
1 wb0s_data_i[29] wb0s_data_i[29]:2 54.944
2 U2772/b wb0s_data_i[29]:2 21.936
3 U2498/b wb0s_data_i[29]:2 2.128
*END

*D_NET wb0s_data_i[28] 0.00082777
*CONN
*P wb0s_data_i[28] I
*I U2830:a I
*I U1778:b I
*CAP
1 U2830/a 3.4845e-05
2 wb0s_data_i[28]:3 0.00041388
3 U1778/b 2.5012e-05
4 wb0s_data_i[28] 0.00035403
*RES
1 U2830/a wb0s_data_i[28]:3 4.848
2 U1778/b wb0s_data_i[28]:3 3.48
3 wb0s_data_i[28] wb0s_data_i[28]:3 49.256
*END

*D_NET wb0s_data_i[27] 0.00089343
*CONN
*P wb0s_data_i[27] I
*I U2771:b I
*I U2265:b I
*CAP
1 wb0s_data_i[27] 0.00042291
2 U2771/b 0.00044672
3 U2265/b 2.3805e-05
*RES
1 wb0s_data_i[27] U2771/b 58.84
2 U2265/b U2771/b 3.312
*END

*D_NET wb0s_data_i[26] 0.0010049
*CONN
*P wb0s_data_i[26] I
*I U2833:a I
*I U2497:b I
*CAP
1 U2833/a 0.00010649
2 U2497/b 0.00050243
3 wb0s_data_i[26] 0.00039594
*RES
1 U2833/a U2497/b 14.816
2 wb0s_data_i[26] U2497/b 55.088
*END

*D_NET wb0s_data_i[25] 0.0010388
*CONN
*P wb0s_data_i[25] I
*I U2770:b I
*I U1768:b I
*CAP
1 wb0s_data_i[25] 0.00050698
2 wb0s_data_i[25]:4 0.0005194
3 U2770/b 1.104e-05
4 U1768/b 1.38e-06
*RES
1 wb0s_data_i[25] wb0s_data_i[25]:4 70.536
2 U2770/b wb0s_data_i[25]:4 1.536
3 U1768/b wb0s_data_i[25]:4 0.192
*END

*D_NET wb0s_data_i[24] 0.0011877
*CONN
*P wb0s_data_i[24] I
*I U2834:a I
*I U2764:b I
*CAP
1 U2834/a 0.00017923
2 wb0s_data_i[24]:5 0.00059386
3 U2764/b 8.0155e-05
4 wb0s_data_i[24] 0.00033448
*RES
1 U2834/a wb0s_data_i[24]:5 24.936
2 U2764/b wb0s_data_i[24]:5 11.152
3 wb0s_data_i[24] wb0s_data_i[24]:5 46.536
*END

*D_NET wb0s_data_i[23] 0.0013754
*CONN
*P wb0s_data_i[23] I
*I U2769:b I
*I U2222:b I
*CAP
1 wb0s_data_i[23] 0.00046011
2 wb0s_data_i[23]:6 0.0006877
3 U2769/b 0.00022327
4 U2222/b 4.3125e-06
*RES
1 wb0s_data_i[23] wb0s_data_i[23]:6 64.016
2 U2769/b wb0s_data_i[23]:6 31.064
3 U2222/b wb0s_data_i[23]:6 0.6
*END

*D_NET wb0s_data_i[22] 0.0020677
*CONN
*P wb0s_data_i[22] I
*I U2768:b I
*I U2091:b I
*CAP
1 wb0s_data_i[22] 0.00095571
2 U2091/b 0.0010338
3 U2768/b 7.8142e-05
*RES
1 wb0s_data_i[22] U2091/b 132.97
2 U2768/b U2091/b 10.872
*END

*D_NET wb0s_data_i[21] 0.0017334
*CONN
*P wb0s_data_i[21] I
*I U2767:b I
*I U2093:b I
*CAP
1 wb0s_data_i[21] 0.00038939
2 wb0s_data_i[21]:7 0.0008667
3 U2093/b 0.00032039
4 U2767/b 0.00015692
*RES
1 wb0s_data_i[21] wb0s_data_i[21]:7 54.176
2 U2093/b wb0s_data_i[21]:7 44.576
3 U2767/b wb0s_data_i[21]:7 21.832
*END

*D_NET wb0s_data_i[20] 0.0015916
*CONN
*P wb0s_data_i[20] I
*I U2766:b I
*I U2095:b I
*CAP
1 wb0s_data_i[20] 0.00038174
2 wb0s_data_i[20]:8 0.0007958
3 U2095/b 6.1985e-05
4 U2766/b 0.00035207
*RES
1 wb0s_data_i[20] wb0s_data_i[20]:8 53.112
2 U2095/b wb0s_data_i[20]:8 8.624
3 U2766/b wb0s_data_i[20]:8 48.984
*END

*D_NET wb0s_data_i[19] 0.0019762
*CONN
*P wb0s_data_i[19] I
*I U2763:b I
*I U2699:b I
*CAP
1 U2699/b 0.00016669
2 wb0s_data_i[19]:9 0.00098808
3 U2763/b 0.000432
4 wb0s_data_i[19] 0.00038939
*RES
1 U2699/b wb0s_data_i[19]:9 23.192
2 U2763/b wb0s_data_i[19]:9 60.104
3 wb0s_data_i[19] wb0s_data_i[19]:9 54.176
*END

*D_NET wb0s_data_i[18] 0.0010048
*CONN
*P wb0s_data_i[18] I
*I U2700:b I
*I U1769:b I
*CAP
1 wb0s_data_i[18] 0.00038939
2 wb0s_data_i[18]:10 0.00050238
3 U1769/b 0.00010275
4 U2700/b 1.0235e-05
*RES
1 wb0s_data_i[18] wb0s_data_i[18]:10 54.176
2 U1769/b wb0s_data_i[18]:10 14.296
3 U2700/b wb0s_data_i[18]:10 1.424
*END

*D_NET wb0s_data_i[17] 0.0019732
*CONN
*P wb0s_data_i[17] I
*I U2701:b I
*I U1770:b I
*CAP
1 U2701/b 0.00028813
2 U1770/b 0.00098658
3 wb0s_data_i[17] 0.00069845
*RES
1 U2701/b U1770/b 40.088
2 wb0s_data_i[17] U1770/b 97.176
*END

*D_NET wb0s_data_i[16] 0.0016906
*CONN
*P wb0s_data_i[16] I
*I U2702:b I
*I U1771:b I
*CAP
1 U1771/b 0.00021051
2 wb0s_data_i[16]:11 0.00084531
3 U2702/b 9.2632e-05
4 wb0s_data_i[16] 0.00054217
*RES
1 U1771/b wb0s_data_i[16]:11 29.288
2 U2702/b wb0s_data_i[16]:11 12.888
3 wb0s_data_i[16] wb0s_data_i[16]:11 75.432
*END

*D_NET wb0s_data_i[15] 0.0014674
*CONN
*P wb0s_data_i[15] I
*I U2703:b I
*I U2496:b I
*CAP
1 U2496/b 6.67e-05
2 wb0s_data_i[15]:12 0.0007337
3 U2703/b 0.00015082
4 wb0s_data_i[15] 0.00051618
*RES
1 U2496/b wb0s_data_i[15]:12 9.28
2 U2703/b wb0s_data_i[15]:12 20.984
3 wb0s_data_i[15] wb0s_data_i[15]:12 71.816
*END

*D_NET wb0s_data_i[14] 0.0014061
*CONN
*P wb0s_data_i[14] I
*I U2704:b I
*I U2079:b I
*CAP
1 U2704/b 0.00026553
2 U2079/b 0.00070305
3 wb0s_data_i[14] 0.00043752
*RES
1 U2704/b U2079/b 36.944
2 wb0s_data_i[14] U2079/b 60.872
*END

*D_NET wb0s_data_i[13] 0.0018052
*CONN
*P wb0s_data_i[13] I
*I U2705:b I
*I U1772:b I
*CAP
1 U1772/b 0.00011218
2 wb0s_data_i[13]:13 0.00090258
3 U2705/b 0.00033971
4 wb0s_data_i[13] 0.00045068
*RES
1 U1772/b wb0s_data_i[13]:13 15.608
2 U2705/b wb0s_data_i[13]:13 47.264
3 wb0s_data_i[13] wb0s_data_i[13]:13 62.704
*END

*D_NET wb0s_data_i[12] 0.0011685
*CONN
*P wb0s_data_i[12] I
*I U2706:b I
*I U2264:b I
*CAP
1 U2706/b 0.00017934
2 U2264/b 0.00058426
3 wb0s_data_i[12] 0.00040491
*RES
1 U2706/b U2264/b 24.952
2 wb0s_data_i[12] U2264/b 56.336
*END

*D_NET wb0s_data_i[11] 0.00155
*CONN
*P wb0s_data_i[11] I
*I U2707:b I
*I U2495:b I
*CAP
1 U2707/b 0.00023178
2 U2495/b 0.00077498
3 wb0s_data_i[11] 0.0005432
*RES
1 U2707/b U2495/b 32.248
2 wb0s_data_i[11] U2495/b 75.576
*END

*D_NET wb0s_data_i[10] 0.0016367
*CONN
*P wb0s_data_i[10] I
*I U2708:b I
*I U2081:b I
*CAP
1 U2708/b 0.00036512
2 U2081/b 0.00081834
3 wb0s_data_i[10] 0.00045321
*RES
1 U2708/b U2081/b 50.8
2 wb0s_data_i[10] U2081/b 63.056
*END

*D_NET wb0s_data_i[9] 0.0015122
*CONN
*P wb0s_data_i[9] I
*I U2709:b I
*I U1763:b I
*CAP
1 wb0s_data_i[9] 0.00040917
2 U1763/b 0.00075612
3 U2709/b 0.00034695
*RES
1 wb0s_data_i[9] U1763/b 56.928
2 U2709/b U1763/b 48.272
*END

*D_NET wb0s_data_i[8] 0.0016544
*CONN
*P wb0s_data_i[8] I
*I U2710:b I
*I U2221:b I
*CAP
1 wb0s_data_i[8] 0.00058213
2 U2221/b 0.00082719
3 U2710/b 0.00024506
*RES
1 wb0s_data_i[8] U2221/b 80.992
2 U2710/b U2221/b 34.096
*END

*D_NET wb0s_data_i[7] 0.0022951
*CONN
*P wb0s_data_i[7] I
*I U2711:b I
*I U2084:b I
*CAP
1 wb0s_data_i[7] 0.00077723
2 U2084/b 0.0011475
3 U2711/b 0.0003703
*RES
1 wb0s_data_i[7] U2084/b 108.14
2 U2711/b U2084/b 51.52
*END

*D_NET wb0s_data_i[6] 0.0019948
*CONN
*P wb0s_data_i[6] I
*I U2712:b I
*I U2086:b I
*CAP
1 wb0s_data_i[6] 0.0005884
2 U2086/b 0.00099739
3 U2712/b 0.000409
*RES
1 wb0s_data_i[6] U2086/b 81.864
2 U2712/b U2086/b 56.904
*END

*D_NET wb0s_data_i[5] 0.0016681
*CONN
*P wb0s_data_i[5] I
*I U2713:b I
*I U1764:b I
*CAP
1 wb0s_data_i[5] 0.00041337
2 wb0s_data_i[5]:14 0.00083404
3 U2713/b 0.00036317
4 U1764/b 5.75e-05
*RES
1 wb0s_data_i[5] wb0s_data_i[5]:14 57.512
2 U2713/b wb0s_data_i[5]:14 50.528
3 U1764/b wb0s_data_i[5]:14 8
*END

*D_NET wb0s_data_i[4] 0.0021171
*CONN
*P wb0s_data_i[4] I
*I U2714:b I
*I U1765:b I
*CAP
1 wb0s_data_i[4] 0.00066395
2 U1765/b 0.0010586
3 U2714/b 0.00039462
*RES
1 wb0s_data_i[4] U1765/b 92.376
2 U2714/b U1765/b 54.904
*END

*D_NET wb0s_data_i[3] 0.0014436
*CONN
*P wb0s_data_i[3] I
*I U2715:b I
*I U1766:b I
*CAP
1 U2715/b 0.00028669
2 U1766/b 0.0007218
3 wb0s_data_i[3] 0.0004351
*RES
1 U2715/b U1766/b 39.888
2 wb0s_data_i[3] U1766/b 60.536
*END

*D_NET wb0s_data_i[2] 0.0014023
*CONN
*P wb0s_data_i[2] I
*I U2716:b I
*I U2088:b I
*CAP
1 U2716/b 0.00031987
2 U2088/b 0.00070115
3 wb0s_data_i[2] 0.00038128
*RES
1 U2716/b U2088/b 44.504
2 wb0s_data_i[2] U2088/b 53.048
*END

*D_NET wb0s_data_i[1] 0.0014999
*CONN
*P wb0s_data_i[1] I
*I U2762:b I
*I U2717:b I
*CAP
1 U2717/b 0.0002093
2 U2762/b 0.00074997
3 wb0s_data_i[1] 0.00054067
*RES
1 U2717/b U2762/b 29.12
2 wb0s_data_i[1] U2762/b 75.224
*END

*D_NET wb0s_data_i[0] 0.0020033
*CONN
*P wb0s_data_i[0] I
*I U2718:b I
*I U1767:b I
*CAP
1 U2718/b 0.00033252
2 U1767/b 0.0010016
3 wb0s_data_i[0] 0.00066913
*RES
1 U2718/b U1767/b 46.264
2 wb0s_data_i[0] U1767/b 93.096
*END

*D_NET wb0s_data_o[31] 0.0049983
*CONN
*P wb0s_data_o[31] O
*I U2186:o O
*CAP
1 wb0s_data_o[31] 0.0044992
2 U2186/o 0.00049916
*RES
1 wb0s_data_o[31] U2186/o 69.448
*END

*D_NET wb0s_data_o[30] 0.0050704
*CONN
*P wb0s_data_o[30] O
*I U2190:o O
*CAP
1 wb0s_data_o[30] 0.0045352
2 U2190/o 0.00053521
*RES
1 wb0s_data_o[30] U2190/o 74.464
*END

*D_NET wb0s_data_o[29] 0.0048633
*CONN
*P wb0s_data_o[29] O
*I U2192:o O
*CAP
1 wb0s_data_o[29] 0.0044317
2 U2192/o 0.00043165
*RES
1 wb0s_data_o[29] U2192/o 60.056
*END

*D_NET wb0s_data_o[28] 0.0047536
*CONN
*P wb0s_data_o[28] O
*I U2193:o O
*CAP
1 wb0s_data_o[28] 0.0043768
2 U2193/o 0.0003768
*RES
1 wb0s_data_o[28] U2193/o 52.424
*END

*D_NET wb0s_data_o[27] 0.0047245
*CONN
*P wb0s_data_o[27] O
*I U2195:o O
*CAP
1 wb0s_data_o[27] 0.0043622
2 U2195/o 0.00036225
*RES
1 wb0s_data_o[27] U2195/o 50.4
*END

*D_NET wb0s_data_o[26] 0.0046962
*CONN
*P wb0s_data_o[26] O
*I U2197:o O
*CAP
1 wb0s_data_o[26] 0.0043481
2 U2197/o 0.0003481
*RES
1 wb0s_data_o[26] U2197/o 48.432
*END

*D_NET wb0s_data_o[25] 0.0048466
*CONN
*P wb0s_data_o[25] O
*I U2200:o O
*CAP
1 wb0s_data_o[25] 0.0044233
2 U2200/o 0.00042331
*RES
1 wb0s_data_o[25] U2200/o 58.896
*END

*D_NET wb0s_data_o[24] 0.0050552
*CONN
*P wb0s_data_o[24] O
*I U2245:o O
*CAP
1 wb0s_data_o[24] 0.0045276
2 U2245/o 0.00052762
*RES
1 wb0s_data_o[24] U2245/o 73.408
*END

*D_NET wb0s_data_o[23] 0.0046975
*CONN
*P wb0s_data_o[23] O
*I U2155:o O
*CAP
1 wb0s_data_o[23] 0.0043487
2 U2155/o 0.00034874
*RES
1 wb0s_data_o[23] U2155/o 48.52
*END

*D_NET wb0s_data_o[22] 0.0047311
*CONN
*P wb0s_data_o[22] O
*I U2158:o O
*CAP
1 wb0s_data_o[22] 0.0043655
2 U2158/o 0.00036553
*RES
1 wb0s_data_o[22] U2158/o 50.856
*END

*D_NET wb0s_data_o[21] 0.0047946
*CONN
*P wb0s_data_o[21] O
*I U2162:o O
*CAP
1 wb0s_data_o[21] 0.0043973
2 U2162/o 0.00039732
*RES
1 wb0s_data_o[21] U2162/o 55.28
*END

*D_NET wb0s_data_o[20] 0.0049861
*CONN
*P wb0s_data_o[20] O
*I U2163:o O
*CAP
1 wb0s_data_o[20] 0.0044931
2 U2163/o 0.00049306
*RES
1 wb0s_data_o[20] U2163/o 68.6
*END

*D_NET wb0s_data_o[19] 0.004703
*CONN
*P wb0s_data_o[19] O
*I U2165:o O
*CAP
1 wb0s_data_o[19] 0.0043515
2 U2165/o 0.0003515
*RES
1 wb0s_data_o[19] U2165/o 48.904
*END

*D_NET wb0s_data_o[18] 0.0048095
*CONN
*P wb0s_data_o[18] O
*I U2168:o O
*CAP
1 wb0s_data_o[18] 0.0044047
2 U2168/o 0.00040474
*RES
1 wb0s_data_o[18] U2168/o 56.312
*END

*D_NET wb0s_data_o[17] 0.0053544
*CONN
*P wb0s_data_o[17] O
*I U2170:o O
*CAP
1 wb0s_data_o[17] 0.0046772
2 U2170/o 0.00067718
*RES
1 wb0s_data_o[17] U2170/o 94.216
*END

*D_NET wb0s_data_o[16] 0.0049711
*CONN
*P wb0s_data_o[16] O
*I U2172:o O
*CAP
1 wb0s_data_o[16] 0.0044855
2 U2172/o 0.00048553
*RES
1 wb0s_data_o[16] U2172/o 67.552
*END

*D_NET wb0s_data_o[15] 0.0052514
*CONN
*P wb0s_data_o[15] O
*I U2174:o O
*CAP
1 wb0s_data_o[15] 0.0046257
2 U2174/o 0.00062571
*RES
1 wb0s_data_o[15] U2174/o 87.056
*END

*D_NET wb0s_data_o[14] 0.0048195
*CONN
*P wb0s_data_o[14] O
*I U2176:o O
*CAP
1 wb0s_data_o[14] 0.0044097
2 U2176/o 0.00040974
*RES
1 wb0s_data_o[14] U2176/o 57.008
*END

*D_NET wb0s_data_o[13] 0.0049479
*CONN
*P wb0s_data_o[13] O
*I U2179:o O
*CAP
1 wb0s_data_o[13] 0.004474
2 U2179/o 0.00047397
*RES
1 wb0s_data_o[13] U2179/o 65.944
*END

*D_NET wb0s_data_o[12] 0.0048756
*CONN
*P wb0s_data_o[12] O
*I U2181:o O
*CAP
1 wb0s_data_o[12] 0.0044378
2 U2181/o 0.0004378
*RES
1 wb0s_data_o[12] U2181/o 60.912
*END

*D_NET wb0s_data_o[11] 0.0049537
*CONN
*P wb0s_data_o[11] O
*I U2183:o O
*CAP
1 wb0s_data_o[11] 0.0044768
2 U2183/o 0.00047685
*RES
1 wb0s_data_o[11] U2183/o 66.344
*END

*D_NET wb0s_data_o[10] 0.0050985
*CONN
*P wb0s_data_o[10] O
*I U2185:o O
*CAP
1 wb0s_data_o[10] 0.0045492
2 U2185/o 0.00054924
*RES
1 wb0s_data_o[10] U2185/o 76.416
*END

*D_NET wb0s_data_o[9] 0.0049124
*CONN
*P wb0s_data_o[9] O
*I U2244:o O
*CAP
1 wb0s_data_o[9] 0.0044562
2 U2244/o 0.0004562
*RES
1 wb0s_data_o[9] U2244/o 63.472
*END

*D_NET wb0s_data_o[8] 0.0053383
*CONN
*P wb0s_data_o[8] O
*I U2134:o O
*CAP
1 wb0s_data_o[8] 0.0046691
2 U2134/o 0.00066913
*RES
1 wb0s_data_o[8] U2134/o 93.096
*END

*D_NET wb0s_data_o[7] 0.0053437
*CONN
*P wb0s_data_o[7] O
*I U2136:o O
*CAP
1 wb0s_data_o[7] 0.0046718
2 U2136/o 0.00067183
*RES
1 wb0s_data_o[7] U2136/o 93.472
*END

*D_NET wb0s_data_o[6] 0.0051118
*CONN
*P wb0s_data_o[6] O
*I U2138:o O
*CAP
1 wb0s_data_o[6] 0.0045559
2 U2138/o 0.00055591
*RES
1 wb0s_data_o[6] U2138/o 77.344
*END

*D_NET wb0s_data_o[5] 0.0050617
*CONN
*P wb0s_data_o[5] O
*I U2140:o O
*CAP
1 wb0s_data_o[5] 0.0045308
2 U2140/o 0.00053084
*RES
1 wb0s_data_o[5] U2140/o 73.856
*END

*D_NET wb0s_data_o[4] 0.0048779
*CONN
*P wb0s_data_o[4] O
*I U2142:o O
*CAP
1 wb0s_data_o[4] 0.004439
2 U2142/o 0.00043895
*RES
1 wb0s_data_o[4] U2142/o 61.072
*END

*D_NET wb0s_data_o[3] 0.0051181
*CONN
*P wb0s_data_o[3] O
*I U2144:o O
*CAP
1 wb0s_data_o[3] 0.0045591
2 U2144/o 0.00055907
*RES
1 wb0s_data_o[3] U2144/o 77.784
*END

*D_NET wb0s_data_o[2] 0.0048271
*CONN
*P wb0s_data_o[2] O
*I U2146:o O
*CAP
1 wb0s_data_o[2] 0.0044135
2 U2146/o 0.00041354
*RES
1 wb0s_data_o[2] U2146/o 57.536
*END

*D_NET wb0s_data_o[1] 0.0046853
*CONN
*P wb0s_data_o[1] O
*I U2147:o O
*CAP
1 wb0s_data_o[1] 0.0043426
2 U2147/o 0.00034264
*RES
1 wb0s_data_o[1] U2147/o 47.672
*END

*D_NET wb0s_data_o[0] 0.0050091
*CONN
*P wb0s_data_o[0] O
*I U2149:o O
*CAP
1 wb0s_data_o[0] 0.0045046
2 U2149/o 0.00050456
*RES
1 wb0s_data_o[0] U2149/o 70.2
*END

*D_NET wb0_addr_i[31] 0.0031663
*CONN
*P wb0_addr_i[31] I
*I U2449:a I
*I FE_RC_38_0:a I
*CAP
1 U2449/a 0.00014875
2 wb0_addr_i[31]:15 0.0015831
3 FE_RC_38_0/a 0.0011037
4 wb0_addr_i[31] 0.00033074
*RES
1 U2449/a wb0_addr_i[31]:15 20.696
2 FE_RC_38_0/a wb0_addr_i[31]:15 153.55
3 wb0_addr_i[31] wb0_addr_i[31]:15 46.016
*END

*D_NET wb0_addr_i[30] 0.0014813
*CONN
*P wb0_addr_i[30] I
*I U2448:b I
*I FE_RC_38_0:c I
*CAP
1 U2448/b 0.00020171
2 wb0_addr_i[30]:16 0.00074066
3 FE_RC_38_0/c 0.00020821
4 wb0_addr_i[30] 0.00033074
*RES
1 U2448/b wb0_addr_i[30]:16 28.064
2 FE_RC_38_0/c wb0_addr_i[30]:16 28.968
3 wb0_addr_i[30] wb0_addr_i[30]:16 46.016
*END

*D_NET wb0_addr_i[29] 0.0018541
*CONN
*P wb0_addr_i[29] I
*I U2447:b I
*I FE_RC_38_0:d I
*CAP
1 U2447/b 0.00035978
2 FE_RC_38_0/d 0.00092707
3 wb0_addr_i[29] 0.00056729
*RES
1 U2447/b FE_RC_38_0/d 50.056
2 wb0_addr_i[29] FE_RC_38_0/d 78.928
*END

*D_NET wb0_addr_i[28] 0.0019413
*CONN
*P wb0_addr_i[28] I
*I U2446:b I
*I FE_RC_38_0:b I
*CAP
1 U2446/b 0.00026479
2 wb0_addr_i[28]:17 0.00097066
3 FE_RC_38_0/b 0.00037513
4 wb0_addr_i[28] 0.00033074
*RES
1 U2446/b wb0_addr_i[28]:17 36.84
2 FE_RC_38_0/b wb0_addr_i[28]:17 52.192
3 wb0_addr_i[28] wb0_addr_i[28]:17 46.016
*END

*D_NET wb0_addr_i[27] 0.001031
*CONN
*P wb0_addr_i[27] I
*I U2494:b I
*CAP
1 wb0_addr_i[27] 0.00051549
2 U2494/b 0.00051549
*RES
1 wb0_addr_i[27] U2494/b 71.72
*END

*D_NET wb0_addr_i[26] 0.00089573
*CONN
*P wb0_addr_i[26] I
*I U2064:b I
*CAP
1 wb0_addr_i[26] 0.00044787
2 U2064/b 0.00044787
*RES
1 wb0_addr_i[26] U2064/b 62.312
*END

*D_NET wb0_addr_i[25] 0.0010506
*CONN
*P wb0_addr_i[25] I
*I FE_RC_75_0:a I
*CAP
1 wb0_addr_i[25] 0.00052532
2 FE_RC_75_0/a 0.00052532
*RES
1 wb0_addr_i[25] FE_RC_75_0/a 73.088
*END

*D_NET wb0_addr_i[24] 0.00095231
*CONN
*P wb0_addr_i[24] I
*I U2068:b I
*CAP
1 wb0_addr_i[24] 0.00047616
2 U2068/b 0.00047616
*RES
1 wb0_addr_i[24] U2068/b 66.248
*END

*D_NET wb0_addr_i[23] 0.00076498
*CONN
*P wb0_addr_i[23] I
*I U2070:b I
*CAP
1 wb0_addr_i[23] 0.00038249
2 U2070/b 0.00038249
*RES
1 wb0_addr_i[23] U2070/b 53.216
*END

*D_NET wb0_addr_i[22] 0.0015028
*CONN
*P wb0_addr_i[22] I
*I U2071:b I
*CAP
1 wb0_addr_i[22] 0.00075141
2 U2071/b 0.00075141
*RES
1 wb0_addr_i[22] U2071/b 104.54
*END

*D_NET wb0_addr_i[21] 0.00093794
*CONN
*P wb0_addr_i[21] I
*I U2073:b I
*CAP
1 wb0_addr_i[21] 0.00046897
2 U2073/b 0.00046897
*RES
1 wb0_addr_i[21] U2073/b 65.248
*END

*D_NET wb0_addr_i[20] 0.00099969
*CONN
*P wb0_addr_i[20] I
*I U2075:b I
*CAP
1 wb0_addr_i[20] 0.00049985
2 U2075/b 0.00049985
*RES
1 wb0_addr_i[20] U2075/b 69.544
*END

*D_NET wb0_addr_i[19] 0.0010118
*CONN
*P wb0_addr_i[19] I
*I U2077:b I
*CAP
1 wb0_addr_i[19] 0.00050588
2 U2077/b 0.00050588
*RES
1 wb0_addr_i[19] U2077/b 70.384
*END

*D_NET wb0_addr_i[18] 0.00089516
*CONN
*P wb0_addr_i[18] I
*I U1760:b I
*CAP
1 wb0_addr_i[18] 0.00044758
2 U1760/b 0.00044758
*RES
1 wb0_addr_i[18] U1760/b 62.272
*END

*D_NET wb0_addr_i[17] 0.00073588
*CONN
*P wb0_addr_i[17] I
*I U1761:b I
*CAP
1 wb0_addr_i[17] 0.00036794
2 U1761/b 0.00036794
*RES
1 wb0_addr_i[17] U1761/b 51.192
*END

*D_NET wb0_addr_i[16] 0.00080615
*CONN
*P wb0_addr_i[16] I
*I U2038:b I
*CAP
1 wb0_addr_i[16] 0.00040307
2 U2038/b 0.00040307
*RES
1 wb0_addr_i[16] U2038/b 56.08
*END

*D_NET wb0_addr_i[15] 0.0010894
*CONN
*P wb0_addr_i[15] I
*I U2040:b I
*CAP
1 wb0_addr_i[15] 0.0005447
2 U2040/b 0.0005447
*RES
1 wb0_addr_i[15] U2040/b 75.784
*END

*D_NET wb0_addr_i[14] 0.0014078
*CONN
*P wb0_addr_i[14] I
*I U2220:b I
*CAP
1 wb0_addr_i[14] 0.00070391
2 U2220/b 0.00070391
*RES
1 wb0_addr_i[14] U2220/b 97.936
*END

*D_NET wb0_addr_i[13] 0.0011031
*CONN
*P wb0_addr_i[13] I
*I U2042:b I
*CAP
1 wb0_addr_i[13] 0.00055154
2 U2042/b 0.00055154
*RES
1 wb0_addr_i[13] U2042/b 76.736
*END

*D_NET wb0_addr_i[12] 0.00083915
*CONN
*P wb0_addr_i[12] I
*I U2044:b I
*CAP
1 wb0_addr_i[12] 0.00041958
2 U2044/b 0.00041958
*RES
1 wb0_addr_i[12] U2044/b 58.376
*END

*D_NET wb0_addr_i[11] 0.00082961
*CONN
*P wb0_addr_i[11] I
*I U2046:b I
*CAP
1 wb0_addr_i[11] 0.0004148
2 U2046/b 0.0004148
*RES
1 wb0_addr_i[11] U2046/b 57.712
*END

*D_NET wb0_addr_i[10] 0.0014367
*CONN
*P wb0_addr_i[10] I
*I U2048:b I
*CAP
1 wb0_addr_i[10] 0.00071835
2 U2048/b 0.00071835
*RES
1 wb0_addr_i[10] U2048/b 99.944
*END

*D_NET wb0_addr_i[9] 0.0040548
*CONN
*P wb0_addr_i[9] I
*I U2050:a I
*I u3_u1_slv_adr_reg_9_:d I
*CAP
1 u3_u1_slv_adr_reg_9_/d 0.00099849
2 U2050/a 0.0020274
3 wb0_addr_i[9] 0.0010289
*RES
1 u3_u1_slv_adr_reg_9_/d U2050/a 138.92
2 wb0_addr_i[9] U2050/a 143.15
*END

*D_NET wb0_addr_i[8] 0.0038386
*CONN
*P wb0_addr_i[8] I
*I U2051:a I
*I u3_u1_slv_adr_reg_8_:d I
*CAP
1 u3_u1_slv_adr_reg_8_/d 0.00012713
2 wb0_addr_i[8]:18 0.0019193
3 U2051/a 1.2305e-05
4 wb0_addr_i[8] 0.0017799
*RES
1 u3_u1_slv_adr_reg_8_/d wb0_addr_i[8]:18 17.688
2 U2051/a wb0_addr_i[8]:18 1.712
3 wb0_addr_i[8] wb0_addr_i[8]:18 247.63
*END

*D_NET wb0_addr_i[7] 0.0019958
*CONN
*P wb0_addr_i[7] I
*I U2052:a I
*I u3_u1_slv_adr_reg_7_:d I
*CAP
1 u3_u1_slv_adr_reg_7_/d 0.00046046
2 wb0_addr_i[7]:19 0.00099791
3 wb0_addr_i[7] 0.00040813
4 U2052/a 0.00012932
*RES
1 u3_u1_slv_adr_reg_7_/d wb0_addr_i[7]:19 64.064
2 wb0_addr_i[7] wb0_addr_i[7]:19 56.784
3 U2052/a wb0_addr_i[7]:19 17.992
*END

*D_NET wb0_addr_i[6] 0.0015688
*CONN
*P wb0_addr_i[6] I
*I U2054:a I
*I u3_u1_slv_adr_reg_6_:d I
*CAP
1 u3_u1_slv_adr_reg_6_/d 8.4755e-05
2 wb0_addr_i[6]:20 0.00078441
3 wb0_addr_i[6] 0.00040813
4 U2054/a 0.00029152
*RES
1 u3_u1_slv_adr_reg_6_/d wb0_addr_i[6]:20 11.792
2 wb0_addr_i[6] wb0_addr_i[6]:20 56.784
3 U2054/a wb0_addr_i[6]:20 40.56
*END

*D_NET wb0_addr_i[5] 0.002948
*CONN
*P wb0_addr_i[5] I
*I U2056:a I
*I u3_u1_slv_adr_reg_5_:d I
*CAP
1 u3_u1_slv_adr_reg_5_/d 0.00084502
2 wb0_addr_i[5]:21 0.001474
3 wb0_addr_i[5] 0.00056022
4 U2056/a 6.877e-05
*RES
1 u3_u1_slv_adr_reg_5_/d wb0_addr_i[5]:21 117.57
2 wb0_addr_i[5] wb0_addr_i[5]:21 77.944
3 U2056/a wb0_addr_i[5]:21 9.568
*END

*D_NET wb0_addr_i[4] 0.006558
*CONN
*P wb0_addr_i[4] I
*I U2057:a I
*I u3_u1_slv_adr_reg_4_:d I
*CAP
1 u3_u1_slv_adr_reg_4_/d 0.0018062
2 wb0_addr_i[4]:22 0.003279
3 wb0_addr_i[4] 0.001295
4 U2057/a 0.00017785
*RES
1 u3_u1_slv_adr_reg_4_/d wb0_addr_i[4]:22 251.3
2 wb0_addr_i[4] wb0_addr_i[4]:22 180.17
3 U2057/a wb0_addr_i[4]:22 24.744
*END

*D_NET wb0_addr_i[3] 0.0058937
*CONN
*P wb0_addr_i[3] I
*I U2058:a I
*I u3_u1_slv_adr_reg_3_:d I
*CAP
1 u3_u1_slv_adr_reg_3_/d 0.0023745
2 wb0_addr_i[3]:23 0.0029469
3 U2058/a 2.07e-06
4 wb0_addr_i[3] 0.00057034
*RES
1 u3_u1_slv_adr_reg_3_/d wb0_addr_i[3]:23 330.36
2 U2058/a wb0_addr_i[3]:23 0.288
3 wb0_addr_i[3] wb0_addr_i[3]:23 79.352
*END

*D_NET wb0_addr_i[2] 0.0060533
*CONN
*P wb0_addr_i[2] I
*I U2059:a I
*I u3_u1_slv_adr_reg_2_:d I
*CAP
1 u3_u1_slv_adr_reg_2_/d 0.0024265
2 U2059/a 0.0030266
3 wb0_addr_i[2] 0.00060013
*RES
1 u3_u1_slv_adr_reg_2_/d U2059/a 337.6
2 wb0_addr_i[2] U2059/a 83.496
*END

*D_NET wb0_addr_i[1] 0.00078602
*CONN
*P wb0_addr_i[1] I
*I U1762:b I
*CAP
1 wb0_addr_i[1] 0.00039301
2 U1762/b 0.00039301
*RES
1 wb0_addr_i[1] U1762/b 54.68
*END

*D_NET wb0_addr_i[0] 0.0010338
*CONN
*P wb0_addr_i[0] I
*I U1758:b I
*CAP
1 wb0_addr_i[0] 0.00051692
2 U1758/b 0.00051692
*RES
1 wb0_addr_i[0] U1758/b 71.92
*END

*D_NET wb0_sel_i[3] 0.001231
*CONN
*P wb0_sel_i[3] I
*I U2734:b I
*CAP
1 wb0_sel_i[3] 0.00061548
2 U2734/b 0.00061548
*RES
1 wb0_sel_i[3] U2734/b 85.632
*END

*D_NET wb0_sel_i[2] 0.0015936
*CONN
*P wb0_sel_i[2] I
*I U2733:b I
*CAP
1 wb0_sel_i[2] 0.00079678
2 U2733/b 0.00079678
*RES
1 wb0_sel_i[2] U2733/b 110.86
*END

*D_NET wb0_sel_i[1] 0.0012643
*CONN
*P wb0_sel_i[1] I
*I U2491:b I
*CAP
1 wb0_sel_i[1] 0.00063215
2 U2491/b 0.00063215
*RES
1 wb0_sel_i[1] U2491/b 87.952
*END

*D_NET wb0_sel_i[0] 0.0021698
*CONN
*P wb0_sel_i[0] I
*I U2730:b I
*CAP
1 wb0_sel_i[0] 0.0010849
2 U2730/b 0.0010849
*RES
1 wb0_sel_i[0] U2730/b 150.94
*END

*D_NET wb0_we_i 0.004091
*CONN
*P wb0_we_i I
*I U2848:a I
*I U2655:b I
*I U1759:b I
*CAP
1 U2655/b 0.0005014
2 U2848/a 0.001444
3 U1759/b 0.00011966
4 wb0_we_i:24 0.0015441
5 wb0_we_i 0.00048185
*RES
1 U2655/b U2848/a 69.76
2 U1759/b wb0_we_i:24 16.648
3 wb0_we_i wb0_we_i:24 67.04
4 U2848/a wb0_we_i:24 131.14
*END

*D_NET wb0_cyc_i 0.006243
*CONN
*P wb0_cyc_i I
*I U2785:a I
*I U2449:b I
*I U2448:a I
*I U2447:a I
*I U2446:a I
*I U2151:a I
*CAP
1 U2151/a 0.00021838
2 wb0_cyc_i:25 0.00083858
3 U2447/a 1.5755e-05
4 wb0_cyc_i:26 0.00069282
5 U2785/a 4.0825e-06
6 wb0_cyc_i:27 0.0010064
7 U2448/a 0.00033833
8 U2449/b 0.00038174
9 wb0_cyc_i 0.00058368
10 wb0_cyc_i:28 0.0018018
11 U2446/a 0.00036139
*RES
1 U2151/a wb0_cyc_i:25 30.384
2 U2447/a wb0_cyc_i:26 2.192
3 U2785/a wb0_cyc_i:27 0.568
4 U2448/a wb0_cyc_i:26 47.072
5 U2449/b wb0_cyc_i:27 53.112
6 wb0_cyc_i wb0_cyc_i:28 81.208
7 wb0_cyc_i:27 wb0_cyc_i:28 86.344
8 wb0_cyc_i:28 wb0_cyc_i:25 83.136
9 wb0_cyc_i:25 U2446/a 3.152
10 U2446/a wb0_cyc_i:26 47.128
*END

*D_NET wb0_stb_i 0.0026713
*CONN
*P wb0_stb_i I
*I U2785:b I
*I U2219:b I
*CAP
1 U2785/b 0.00091741
2 U2219/b 0.0013357
3 wb0_stb_i 0.00041825
*RES
1 U2785/b U2219/b 127.64
2 wb0_stb_i U2219/b 58.192
*END

*D_NET wb0_ack_o 0.0052477
*CONN
*P wb0_ack_o O
*I U2671:o O
*CAP
1 wb0_ack_o 0.0046239
2 U2671/o 0.00062387
*RES
1 wb0_ack_o U2671/o 86.8
*END

*D_NET wb0_err_o 0.0046924
*CONN
*P wb0_err_o O
*I U2732:o O
*CAP
1 wb0_err_o 0.0043462
2 U2732/o 0.00034621
*RES
1 wb0_err_o U2732/o 48.168
*END

*D_NET wb0_rty_o 0.0048381
*CONN
*P wb0_rty_o O
*I U2731:o O
*CAP
1 wb0_rty_o 0.0044191
2 U2731/o 0.00041906
*RES
1 wb0_rty_o U2731/o 58.304
*END

*D_NET wb0m_data_i[31] 0.0085538
*CONN
*P wb0m_data_i[31] I
*I U3111:b I
*I u3_u1_slv_dout_reg_31_:d I
*CAP
1 wb0m_data_i[31] 0.0010761
2 wb0m_data_i[31]:29 0.0042769
3 U3111/b 0.0024106
4 u3_u1_slv_dout_reg_31_/d 0.00079022
*RES
1 wb0m_data_i[31] wb0m_data_i[31]:29 149.72
2 U3111/b wb0m_data_i[31]:29 335.38
3 u3_u1_slv_dout_reg_31_/d wb0m_data_i[31]:29 109.94
*END

*D_NET wb0m_data_i[30] 0.007155
*CONN
*P wb0m_data_i[30] I
*I U3123:b I
*I u3_u1_slv_dout_reg_30_:d I
*CAP
1 wb0m_data_i[30] 0.00077769
2 wb0m_data_i[30]:30 0.0035775
3 U3123/b 0.0022564
4 u3_u1_slv_dout_reg_30_/d 0.00054343
*RES
1 wb0m_data_i[30] wb0m_data_i[30]:30 108.2
2 U3123/b wb0m_data_i[30]:30 313.93
3 u3_u1_slv_dout_reg_30_/d wb0m_data_i[30]:30 75.608
*END

*D_NET wb0m_data_i[29] 0.006469
*CONN
*P wb0m_data_i[29] I
*I U3113:b I
*I u3_u1_slv_dout_reg_29_:d I
*CAP
1 wb0m_data_i[29] 0.0005677
2 wb0m_data_i[29]:31 0.0032345
3 U3113/b 0.00069477
4 u3_u1_slv_dout_reg_29_/d 0.001972
*RES
1 wb0m_data_i[29] wb0m_data_i[29]:31 78.984
2 U3113/b wb0m_data_i[29]:31 96.664
3 u3_u1_slv_dout_reg_29_/d wb0m_data_i[29]:31 274.37
*END

*D_NET wb0m_data_i[28] 0.0058541
*CONN
*P wb0m_data_i[28] I
*I U3115:b I
*I u3_u1_slv_dout_reg_28_:d I
*CAP
1 u3_u1_slv_dout_reg_28_/d 0.00097221
2 wb0m_data_i[28]:32 0.002927
3 U3115/b 0.0011109
4 wb0m_data_i[28] 0.00084393
*RES
1 u3_u1_slv_dout_reg_28_/d wb0m_data_i[28]:32 135.26
2 U3115/b wb0m_data_i[28]:32 154.56
3 wb0m_data_i[28] wb0m_data_i[28]:32 117.42
*END

*D_NET wb0m_data_i[27] 0.0059624
*CONN
*P wb0m_data_i[27] I
*I U3117:b I
*I u3_u1_slv_dout_reg_27_:d I
*CAP
1 wb0m_data_i[27] 0.0008234
2 wb0m_data_i[27]:33 0.0029812
3 U3117/b 0.0016195
4 u3_u1_slv_dout_reg_27_/d 0.00053831
*RES
1 wb0m_data_i[27] wb0m_data_i[27]:33 114.56
2 U3117/b wb0m_data_i[27]:33 225.32
3 u3_u1_slv_dout_reg_27_/d wb0m_data_i[27]:33 74.896
*END

*D_NET wb0m_data_i[26] 0.0056196
*CONN
*P wb0m_data_i[26] I
*I U3119:b I
*I u3_u1_slv_dout_reg_26_:d I
*CAP
1 u3_u1_slv_dout_reg_26_/d 0.0015949
2 wb0m_data_i[26]:34 0.0028098
3 U3119/b 0.00054769
4 wb0m_data_i[26] 0.00066717
*RES
1 u3_u1_slv_dout_reg_26_/d wb0m_data_i[26]:34 221.9
2 U3119/b wb0m_data_i[26]:34 76.2
3 wb0m_data_i[26] wb0m_data_i[26]:34 92.824
*END

*D_NET wb0m_data_i[25] 0.0038832
*CONN
*P wb0m_data_i[25] I
*I U2341:b I
*I u3_u1_slv_dout_reg_25_:d I
*CAP
1 wb0m_data_i[25] 0.00077067
2 wb0m_data_i[25]:35 0.0019416
3 U2341/b 0.00026824
4 u3_u1_slv_dout_reg_25_/d 0.00090269
*RES
1 wb0m_data_i[25] wb0m_data_i[25]:35 107.22
2 U2341/b wb0m_data_i[25]:35 37.32
3 u3_u1_slv_dout_reg_25_/d wb0m_data_i[25]:35 125.59
*END

*D_NET wb0m_data_i[24] 0.019134
*CONN
*P wb0m_data_i[24] I
*I U3121:b I
*I u3_u1_slv_dout_reg_24_:d I
*CAP
1 u3_u1_slv_dout_reg_24_/d 0.001116
2 wb0m_data_i[24]:36 0.009567
3 wb0m_data_i[24] 0.006277
4 U3121/b 0.002174
*RES
1 u3_u1_slv_dout_reg_24_/d wb0m_data_i[24]:36 155.26
2 wb0m_data_i[24] wb0m_data_i[24]:36 873.33
3 U3121/b wb0m_data_i[24]:36 302.46
*END

*D_NET wb0m_data_i[23] 0.004325
*CONN
*P wb0m_data_i[23] I
*I U2342:b I
*I u3_u1_slv_dout_reg_23_:d I
*CAP
1 wb0m_data_i[23] 0.00057126
2 wb0m_data_i[23]:37 0.0021625
3 U2342/b 0.00077251
4 u3_u1_slv_dout_reg_23_/d 0.00081874
*RES
1 wb0m_data_i[23] wb0m_data_i[23]:37 79.48
2 U2342/b wb0m_data_i[23]:37 107.48
3 u3_u1_slv_dout_reg_23_/d wb0m_data_i[23]:37 113.91
*END

*D_NET wb0m_data_i[22] 0.0037792
*CONN
*P wb0m_data_i[22] I
*I U2343:b I
*I u3_u1_slv_dout_reg_22_:d I
*CAP
1 wb0m_data_i[22] 0.00066602
2 wb0m_data_i[22]:38 0.0018896
3 U2343/b 0.00014961
4 u3_u1_slv_dout_reg_22_/d 0.001074
*RES
1 wb0m_data_i[22] wb0m_data_i[22]:38 92.664
2 U2343/b wb0m_data_i[22]:38 20.816
3 u3_u1_slv_dout_reg_22_/d wb0m_data_i[22]:38 149.42
*END

*D_NET wb0m_data_i[21] 0.0061565
*CONN
*P wb0m_data_i[21] I
*I U2525:b I
*I u3_u1_slv_dout_reg_21_:d I
*CAP
1 wb0m_data_i[21] 0.00053055
2 wb0m_data_i[21]:39 0.0030783
3 U2525/b 0.0011188
4 u3_u1_slv_dout_reg_21_/d 0.0014289
*RES
1 wb0m_data_i[21] wb0m_data_i[21]:39 73.816
2 U2525/b wb0m_data_i[21]:39 155.66
3 u3_u1_slv_dout_reg_21_/d wb0m_data_i[21]:39 198.81
*END

*D_NET wb0m_data_i[20] 0.0048386
*CONN
*P wb0m_data_i[20] I
*I U2523:b I
*I u3_u1_slv_dout_reg_20_:d I
*CAP
1 wb0m_data_i[20] 0.00058201
2 wb0m_data_i[20]:40 0.0024193
3 U2523/b 0.00062192
4 u3_u1_slv_dout_reg_20_/d 0.0012154
*RES
1 wb0m_data_i[20] wb0m_data_i[20]:40 80.976
2 U2523/b wb0m_data_i[20]:40 86.528
3 u3_u1_slv_dout_reg_20_/d wb0m_data_i[20]:40 169.1
*END

*D_NET wb0m_data_i[19] 0.0087544
*CONN
*P wb0m_data_i[19] I
*I U2344:b I
*I u3_u1_slv_dout_reg_19_:d I
*CAP
1 u3_u1_slv_dout_reg_19_/d 0.00098204
2 wb0m_data_i[19]:41 0.0043772
3 U2344/b 0.002628
4 wb0m_data_i[19] 0.00076711
*RES
1 u3_u1_slv_dout_reg_19_/d wb0m_data_i[19]:41 136.63
2 U2344/b wb0m_data_i[19]:41 365.64
3 wb0m_data_i[19] wb0m_data_i[19]:41 106.73
*END

*D_NET wb0m_data_i[18] 0.0052813
*CONN
*P wb0m_data_i[18] I
*I U3128:b I
*I u3_u1_slv_dout_reg_18_:d I
*CAP
1 wb0m_data_i[18] 0.00053182
2 wb0m_data_i[18]:42 0.0026406
3 U3128/b 0.0011654
4 u3_u1_slv_dout_reg_18_/d 0.0009434
*RES
1 wb0m_data_i[18] wb0m_data_i[18]:42 73.992
2 U3128/b wb0m_data_i[18]:42 162.14
3 u3_u1_slv_dout_reg_18_/d wb0m_data_i[18]:42 131.26
*END

*D_NET wb0m_data_i[17] 0.0029379
*CONN
*P wb0m_data_i[17] I
*I U2519:b I
*I u3_u1_slv_dout_reg_17_:d I
*CAP
1 u3_u1_slv_dout_reg_17_/d 0.00093736
2 U2519/b 0.001469
3 wb0m_data_i[17] 0.00053159
*RES
1 u3_u1_slv_dout_reg_17_/d U2519/b 130.42
2 wb0m_data_i[17] U2519/b 73.96
*END

*D_NET wb0m_data_i[16] 0.0044784
*CONN
*P wb0m_data_i[16] I
*I U2518:b I
*I u3_u1_slv_dout_reg_16_:d I
*CAP
1 U2518/b 0.00040434
2 wb0m_data_i[16]:43 0.0022392
3 wb0m_data_i[16] 0.00052837
4 u3_u1_slv_dout_reg_16_/d 0.0013065
*RES
1 U2518/b wb0m_data_i[16]:43 56.256
2 wb0m_data_i[16] wb0m_data_i[16]:43 73.512
3 u3_u1_slv_dout_reg_16_/d wb0m_data_i[16]:43 181.78
*END

*D_NET wb0m_data_i[15] 0.004348
*CONN
*P wb0m_data_i[15] I
*I U2225:b I
*I u3_u1_slv_dout_reg_15_:d I
*CAP
1 U2225/b 0.00012874
2 wb0m_data_i[15]:44 0.002174
3 wb0m_data_i[15] 0.00057431
4 u3_u1_slv_dout_reg_15_/d 0.001471
*RES
1 U2225/b wb0m_data_i[15]:44 17.912
2 wb0m_data_i[15] wb0m_data_i[15]:44 79.904
3 u3_u1_slv_dout_reg_15_/d wb0m_data_i[15]:44 204.66
*END

*D_NET wb0m_data_i[14] 0.0055597
*CONN